$ MECEA M100 HTP
$ Curso 2019/2020
$
$ DEFINITION OF MATERIALS
$ ******************* 
$-------$-------$-------$-------$-------$-------$-------$-------$-------$-------
$ Aluminium materials
MAT1       10001   7.E04            0.33           23E-6                                
MAT1       20002   7.E04            0.33           23E-6 
$
$ Ti-6Al-4V
MAT1       20008 113.E06            0.34           23E-6 
$
$ Composite RODs
MAT1       20001 6.61E04            0.25 
MAT1       20003  7.1E04            0.26
MAT1       20004 7.94E04            0.15
MAT1       20005 5.97E04            0.25
MAT1       20006 5.93E04            0.31
MAT1       20007 5.82E04            0.44
$                               
$ Composite material PLY
MAT8       30001  1.3E05 8.85E03     0.3  3.8E03
$                       
$
$
$ DEFINITION OF LAMINATES                                            
$ ***********************                                                             
$-------$-------$-------$-------$-------$-------$-------$-------$-------$-------
$Skin_11
PCOMP      10011  -1.055      3.                                        +0000AX1
+0000AX1   30001   0.192     45.YES        30001   0.192    135.YES     +0000AX2
+0000AX2   30001   0.192     90.YES        30001   0.192    135.YES     +0000AX3
+0000AX3   30001   0.192     45.YES        30001   0.192      0.YES     +0000AX4
+0000AX4   30001   0.192     45.YES        30001   0.192    135.YES     +0000AX5
+0000AX5   30001   0.192     90.YES        30001   0.192    135.YES     +0000AX6
+0000AX6   30001   0.192     45.YES				
$
$Skin_17
PCOMP      10017   -1.63      3.                                        +0000AE8
+0000AE8   30001   0.192     45.YES        30001   0.192    135.YES     +0000AE9
+0000AE9   30001   0.192     90.YES        30001   0.192      0.YES     +0000AEA
+0000AEA   30001   0.192     90.YES        30001   0.192    135.YES     +0000AEB
+0000AEB   30001   0.192     45.YES        30001   0.192      0.YES     +0000AEC
+0000AEC   30001   0.192      0.YES        30001   0.192      0.YES     +0000AED
+0000AED   30001   0.192     45.YES        30001   0.192    135.YES     +0000AEE
+0000AEE   30001   0.192     90.YES        30001   0.192      0.YES     +0000AEF
+0000AEF   30001   0.192     90.YES        30001   0.192    135.YES     +0000AF0
+0000AF0   30001   0.192     45.YES
$
$Skin_23
PCOMP      10023   -2.21      3.                                        +0000AF3
+0000AF3   30001   0.192     45.YES        30001   0.192    135.YES     +0000AF4
+0000AF4   30001   0.192     90.YES        30001   0.192      0.YES     +0000AF5
+0000AF5   30001   0.192     90.YES        30001   0.192      0.YES     +0000AF6
+0000AF6   30001   0.192    135.YES        30001   0.192     45.YES     +0000AF7
+0000AF7   30001   0.192      0.YES        30001   0.192     45.YES     +0000AF8
+0000AF8   30001   0.192    135.YES        30001   0.192      0.YES     +0000AF9
+0000AF9   30001   0.192    135.YES        30001   0.192     45.YES     +0000AFA
+0000AFA   30001   0.192      0.YES        30001   0.192     45.YES     +0000AFB
+0000AFB   30001   0.192    135.YES        30001   0.192      0.YES     +0000AFC
+0000AFC   30001   0.192     90.YES        30001   0.192      0.YES     +0000AFD
+0000AFD   30001   0.192     90.YES        30001   0.192    135.YES     +0000AFE
+0000AFE   30001   0.192     45.YES
$
$Skin_31
PCOMP      10031   -2.98      3.                                        +0000B01
+0000B01   30001   0.192     45.YES        30001   0.192    135.YES     +0000B02
+0000B02   30001   0.192     90.YES        30001   0.192      0.YES     +0000B03
+0000B03   30001   0.192     90.YES        30001   0.192      0.YES     +0000B04
+0000B04   30001   0.192    135.YES        30001   0.192     45.YES     +0000B05
+0000B05   30001   0.192     90.YES        30001   0.192      0.YES     +0000B06
+0000B06   30001   0.192      0.YES        30001   0.192     90.YES     +0000B07
+0000B07   30001   0.192     45.YES        30001   0.192    135.YES     +0000B08
+0000B08   30001   0.192      0.YES        30001   0.192      0.YES     +0000B09
+0000B09   30001   0.192      0.YES        30001   0.192    135.YES     +0000B0A
+0000B0A   30001   0.192     45.YES        30001   0.192     90.YES     +0000B0B
+0000B0B   30001   0.192      0.YES        30001   0.192      0.YES     +0000B0C
+0000B0C   30001   0.192     90.YES        30001   0.192     45.YES     +0000B0D
+0000B0D   30001   0.192    135.YES        30001   0.192      0.YES     +0000B0E
+0000B0E   30001   0.192     90.YES        30001   0.192      0.YES     +0000B0F
+0000B0F   30001   0.192     90.YES        30001   0.192    135.YES     +0000B10
+0000B10   30001   0.192     45.YES
$
$Skin_37
PCOMP      10037  -3.552      3.                                        +000HB01
+000HB01   30001   0.192     45.YES        30001   0.192    135.YES     +000HB02
+000HB02   30001   0.192      0.YES        30001   0.192     90.YES     +000HB03
+000HB03   30001   0.192      0.YES        30001   0.192     90.YES     +000HB04
+000HB04   30001   0.192      0.YES        30001   0.192    135.YES     +000HB05
+000HB05   30001   0.192     45.YES        30001   0.192     90.YES     +000HB06
+000HB06   30001   0.192      0.YES        30001   0.192      0.YES     +000HB07
+000HB07   30001   0.192     90.YES        30001   0.192     45.YES     +000HB08
+000HB08   30001   0.192    135.YES        30001   0.192      0.YES     +000HB09
+000HB09   30001   0.192    135.YES        30001   0.192     45.YES     +000HB10
+000HB10   30001   0.192      0.YES        30001   0.192     45.YES     +000HB11
+000HB11   30001   0.192    135.YES        30001   0.192      0.YES     +000HB12
+000HB12   30001   0.192    135.YES        30001   0.192     45.YES     +000HB13
+000HB13   30001   0.192     90.YES        30001   0.192      0.YES     +000HB14
+000HB14   30001   0.192      0.YES        30001   0.192     90.YES     +000HB15
+000HB15   30001   0.192     45.YES        30001   0.192    135.YES     +000HB16
+000HB16   30001   0.192      0.YES        30001   0.192     90.YES     +000HB17
+000HB17   30001   0.192      0.YES        30001   0.192     90.YES     +000HB18
+000HB18   30001   0.192      0.YES        30001   0.192    135.YES     +000HB19
+000HB19   30001   0.192     45.YES
$
$Skin_59
PCOMP      10059  -5.665      3.                                        +00AHB01
+00AHB01   30001   0.192     45.YES        30001   0.192    135.YES     +00AHB02
+00AHB02   30001   0.192     45.YES        30001   0.192    135.YES     +00AHB03
+00AHB03   30001   0.192      0.YES        30001   0.192     90.YES     +00AHB04
+00AHB04   30001   0.192      0.YES        30001   0.192     90.YES     +00AHB05
+00AHB05   30001   0.192      0.YES        30001   0.192    135.YES     +00AHB06
+00AHB06   30001   0.192     45.YES        30001   0.192    135.YES     +00AHB07
+00AHB07   30001   0.192     45.YES        30001   0.192      0.YES     +00AHB08
+00AHB08   30001   0.192     90.YES        30001   0.192      0.YES     +00AHB09
+00AHB09   30001   0.192     90.YES        30001   0.192      0.YES     +00AHB10
+00AHB10   30001   0.192     90.YES        30001   0.192      0.YES     +00AHB11
+00AHB11   30001   0.192     45.YES        30001   0.192    135.YES     +00AHB12
+00AHB12   30001   0.192      0.YES        30001   0.192     90.YES     +00AHB13
+00AHB13   30001   0.192      0.YES        30001   0.192     90.YES     +00AHB14
+00AHB14   30001   0.192      0.YES        30001   0.192    135.YES     +00AHB15
+00AHB15   30001   0.192     45.YES        30001   0.192      0.YES     +00AHB16
+00AHB16   30001   0.192     45.YES        30001   0.192    135.YES     +00AHB17
+00AHB17   30001   0.192      0.YES        30001   0.192     90.YES     +00AHB18
+00AHB18   30001   0.192      0.YES        30001   0.192     90.YES     +00AHB19
+00AHB19   30001   0.192      0.YES        30001   0.192    135.YES     +00AHB20
+00AHB20   30001   0.192     45.YES        30001   0.192      0.YES     +00AHB21
$ ... 9 like lines cut
+00AHB30   30001   0.192     45.YES
$
$-------$-------$-------$-------$-------$-------$-------$-------$-------$-------
$Rib_14
PCOMP      11014   -1.34      3.                                        +0000B13
+0000B13   30001   0.192     45.YES        30001   0.192    -45.YES     +0000B14
+0000B14   30001   0.192    -45.YES        30001   0.192     45.YES     +0000B15
+0000B15   30001   0.192      0.YES        30001   0.192      0.YES     +0000B16
+0000B16   30001   0.192     90.YES        30001   0.192     90.YES     +0000B17
+0000B17   30001   0.192      0.YES        30001   0.192      0.YES     +0000B18
+0000B18   30001   0.192     45.YES        30001   0.192    -45.YES     +0000B19
+0000B19   30001   0.192    -45.YES        30001   0.192     45.YES     +0000B1A
$Rib_16
PCOMP      11016   -1.54      3.                                        +0000B1C
+0000B1C   30001   0.192     45.YES        30001   0.192    -45.YES     +0000B1D
+0000B1D   30001   0.192     90.YES        30001   0.192    -45.YES     +0000B1E
+0000B1E   30001   0.192     45.YES        30001   0.192      0.YES     +0000B1F
+0000B1F   30001   0.192      0.YES        30001   0.192     90.YES     +0000B20
+0000B20   30001   0.192     90.YES        30001   0.192      0.YES     +0000B21
+0000B21   30001   0.192      0.YES        30001   0.192     45.YES     +0000B22
+0000B22   30001   0.192    -45.YES        30001   0.192     90.YES     +0000B23
+0000B23   30001   0.192    -45.YES        30001   0.192     45.YES     +0000B24
$Rib_20
PCOMP      11020   -1.92      3.                                        +0000B26
+0000B26   30001   0.192     45.YES        30001   0.192    -45.YES     +0000B27
+0000B27   30001   0.192     90.YES        30001   0.192    -45.YES     +0000B28
+0000B28   30001   0.192     45.YES        30001   0.192      0.YES     +0000B29
+0000B29   30001   0.192     45.YES        30001   0.192    -45.YES     +0000B2A
+0000B2A   30001   0.192      0.YES        30001   0.192     90.YES     +0000B2B
+0000B2B   30001   0.192     90.YES        30001   0.192      0.YES     +0000B2C
+0000B2C   30001   0.192     45.YES        30001   0.192    -45.YES     +0000B2D
+0000B2D   30001   0.192      0.YES        30001   0.192     45.YES     +0000B2E
+0000B2E   30001   0.192    -45.YES        30001   0.192     90.YES     +0000B2F
+0000B2F   30001   0.192    -45.YES        30001   0.192     45.YES     +0000B30
$
$Rib_22
PCOMP      11022   -2.11      3.                                        +000CB01
+000CB01   30001   0.192     45.YES        30001   0.192    -45.YES     +000CB02
+000CB02   30001   0.192     90.YES        30001   0.192    -45.YES     +000CB03
+000CB03   30001   0.192     45.YES        30001   0.192      0.YES     +000CB04
+000CB04   30001   0.192     45.YES        30001   0.192    -45.YES     +000CB05
+000CB05   30001   0.192      0.YES        30001   0.192     90.YES     +000CB06
+000CB06   30001   0.192      0.YES        30001   0.192      0.YES     +000CB07
+000CB07   30001   0.192     90.YES        30001   0.192      0.YES     +000CB08
+000CB08   30001   0.192    -45.YES        30001   0.192     45.YES     +000CB09
+000CB09   30001   0.192      0.YES        30001   0.192     45.YES     +000CB10
+000CB10   30001   0.192    -45.YES        30001   0.192     90.YES     +000CB11
+000CB11   30001   0.192    -45.YES        30001   0.192     45.YES
$
$Rib_25
PCOMP      11025    -2.4      3.                                        +000RB01
+000RB01   30001   0.192     45.YES        30001   0.192    -45.YES     +000RB02
+000RB02   30001   0.192     90.YES        30001   0.192    -45.YES     +000RB03
+000RB03   30001   0.192     45.YES        30001   0.192      0.YES     +000RB04
+000RB04   30001   0.192     45.YES        30001   0.192    -45.YES     +000RB05
+000RB05   30001   0.192      0.YES        30001   0.192     90.YES     +000RB06
+000RB06   30001   0.192      0.YES        30001   0.192      0.YES     +000RB07
+000RB07   30001   0.192     90.YES        30001   0.192      0.YES     +000RB08
+000RB08   30001   0.192      0.YES        30001   0.192     90.YES     +000RB09
+000RB09   30001   0.192      0.YES        30001   0.192    -45.YES     +000RB10
+000RB10   30001   0.192     45.YES        30001   0.192      0.YES     +000RB11
+000RB11   30001   0.192     45.YES        30001   0.192    -45.YES     +000RB12
+000RB12   30001   0.192     90.YES        30001   0.192    -45.YES     +000RB13
+000RB13   30001   0.192     45.YES
$
$Rib_29
PCOMP      11029   -2.78      3.                                        +0000B32
+0000B32   30001   0.192     45.YES        30001   0.192    -45.YES     +0000B33
+0000B33   30001   0.192     90.YES        30001   0.192    -45.YES     +0000B34
+0000B34   30001   0.192     45.YES        30001   0.192      0.YES     +0000B35
+0000B35   30001   0.192     45.YES        30001   0.192    -45.YES     +0000B36
+0000B36   30001   0.192      0.YES        30001   0.192     90.YES     +0000B37
+0000B37   30001   0.192      0.YES        30001   0.192      0.YES     +0000B38
+0000B38   30001   0.192     45.YES        30001   0.192    -45.YES     +0000B39
+0000B39   30001   0.192     90.YES        30001   0.192    -45.YES     +0000B3A
+0000B3A   30001   0.192     45.YES        30001   0.192      0.YES     +0000B3B
+0000B3B   30001   0.192      0.YES        30001   0.192     90.YES     +0000B3C
+0000B3C   30001   0.192      0.YES        30001   0.192     45.YES     +0000B3D
+0000B3D   30001   0.192    -45.YES        30001   0.192      0.YES     +0000B3E
+0000B3E   30001   0.192     45.YES        30001   0.192    -45.YES     +0000B3F
+0000B3F   30001   0.192     90.YES        30001   0.192    -45.YES     +0000B40
+0000B40   30001   0.192     45.YES
$
$Rib_50
PCOMP      11050    -4.8      3.                                        +000KB43
+000KB43   30001   0.192     45.YES        30001   0.192    -45.YES     +000KB44
+000KB44   30001   0.192      0.YES        30001   0.192     90.YES     +000KB45
+000KB45   30001   0.192    -45.YES        30001   0.192     45.YES     +000KB46
+000KB46   30001   0.192      0.YES        30001   0.192     45.YES     +000KB47
+000KB47   30001   0.192    -45.YES        30001   0.192     90.YES     +000KB48
+000KB48   30001   0.192     45.YES        30001   0.192    -45.YES     +000KB49
+000KB49   30001   0.192      0.YES        30001   0.192    -45.YES     +000KB50
+000KB50   30001   0.192     45.YES        30001   0.192      0.YES     +000KB51
+000KB51   30001   0.192     45.YES        30001   0.192    -45.YES     +000KB52
+000KB52   30001   0.192      0.YES        30001   0.192     45.YES     +000KB53
+000KB53   30001   0.192    -45.YES        30001   0.192      0.YES     +000KB54
+000KB54   30001   0.192     45.YES        30001   0.192    -45.YES     +000KB55
+000KB55   30001   0.192     90.YES        30001   0.192     90.YES     +000KB56
+000KB56   30001   0.192    -45.YES        30001   0.192     45.YES     +000KB57
+000KB57   30001   0.192      0.YES        30001   0.192    -45.YES     +000KB58
+000KB58   30001   0.192     45.YES        30001   0.192      0.YES     +000KB59
+000KB59   30001   0.192    -45.YES        30001   0.192     45.YES     +000KB60
+000KB60   30001   0.192      0.YES        30001   0.192     45.YES     +000KB61
+000KB61   30001   0.192    -45.YES        30001   0.192      0.YES     +000KB62
+000KB62   30001   0.192    -45.YES        30001   0.192     45.YES     +000KB63
$ ... 4 like lines cut
+000KB67   30001   0.192    -45.YES        30001   0.192     45.YES
$
$-------$-------$-------$-------$-------$-------$-------$-------$-------$-------
$Spar_11
PCOMP      12011   -1.06      3.                                        +0000B43
+0000B43   30001   0.192     45.YES        30001   0.192    -45.YES     +0000B44
+0000B44   30001   0.192    -45.YES        30001   0.192     45.YES     +0000B45
+0000B45   30001   0.192      0.YES        30001   0.192     90.YES     +0000B46
+0000B46   30001   0.192      0.YES        30001   0.192     45.YES     +0000B47
+0000B47   30001   0.192    -45.YES        30001   0.192    -45.YES     +0000B48
+0000B48   30001   0.192     45.YES
$
$Spar_15
PCOMP      12015   -1.44      3.                                        +000KB68
+000KB68   30001   0.192     45.YES        30001   0.192    -45.YES     +000KB69
+000KB69   30001   0.192    -45.YES        30001   0.192     45.YES     +000KB70
+000KB70   30001   0.192    -45.YES        30001   0.192     45.YES     +000KB71
+000KB71   30001   0.192      0.YES        30001   0.192     90.YES     +000KB72
+000KB72   30001   0.192      0.YES        30001   0.192     45.YES     +000KB73
+000KB73   30001   0.192    -45.YES        30001   0.192     45.YES     +000KB74
+000KB74   30001   0.192    -45.YES        30001   0.192    -45.YES     +000KB75
+000KB75   30001   0.192     45.
$
$Spar_17
PCOMP      12017   -1.63      3.                                        +0000B4B
+0000B4B   30001   0.192     45.YES        30001   0.192    -45.YES     +0000B4C
+0000B4C   30001   0.192    -45.YES        30001   0.192     45.YES     +0000B4D
+0000B4D   30001   0.192    -45.YES        30001   0.192     45.YES     +0000B4E
+0000B4E   30001   0.192      0.YES        30001   0.192     90.YES     +0000B4F
+0000B4F   30001   0.192      0.YES        30001   0.192     90.YES     +0000B50
+0000B50   30001   0.192      0.YES        30001   0.192     45.YES     +0000B51
+0000B51   30001   0.192    -45.YES        30001   0.192     45.YES     +0000B52
+0000B52   30001   0.192    -45.YES        30001   0.192    -45.YES     +0000B53
+0000B53   30001   0.192     45.YES
$
$Spar_23
PCOMP      12023   -2.21      3.                                        +0000B56
+0000B56   30001   0.192     45.YES        30001   0.192    -45.YES     +0000B57
+0000B57   30001   0.192    -45.YES        30001   0.192     45.YES     +0000B58
+0000B58   30001   0.192    -45.YES        30001   0.192     45.YES     +0000B59
+0000B59   30001   0.192      0.YES        30001   0.192     45.YES     +0000B5A
+0000B5A   30001   0.192    -45.YES        30001   0.192     90.YES     +0000B5B
+0000B5B   30001   0.192      0.YES        30001   0.192     90.YES     +0000B5C
+0000B5C   30001   0.192      0.YES        30001   0.192     90.YES     +0000B5D
+0000B5D   30001   0.192    -45.YES        30001   0.192     45.YES     +0000B5E
+0000B5E   30001   0.192      0.YES        30001   0.192     45.YES     +0000B5F
+0000B5F   30001   0.192    -45.YES        30001   0.192     45.YES     +0000B60
+0000B60   30001   0.192    -45.YES        30001   0.192    -45.YES     +0000B61
+0000B61   30001   0.192     45.YES
$
$Spar_27
PCOMP      12027   -2.59      3.                                        +000KB76
+000KB76   30001   0.192     45.YES        30001   0.192    -45.YES     +000KB77
+000KB77   30001   0.192    -45.YES        30001   0.192     45.YES     +000KB78
+000KB78   30001   0.192    -45.YES        30001   0.192     45.YES     +000KB79
+000KB79   30001   0.192      0.YES        30001   0.192     45.YES     +000KB80
+000KB80   30001   0.192    -45.YES        30001   0.192     90.YES     +000KB81
+000KB81   30001   0.192    -45.YES        30001   0.192     45.YES     +000KB82
+000KB82   30001   0.192      0.YES        30001   0.192     90.YES     +000KB83
+000KB83   30001   0.192      0.YES        30001   0.192     45.YES     +000KB84
+000KB84   30001   0.192    -45.YES        30001   0.192     90.YES     +000KB85
+000KB85   30001   0.192    -45.YES        30001   0.192     45.YES     +000KB86
+000KB86   30001   0.192      0.YES        30001   0.192     45.YES     +000KB87
+000KB87   30001   0.192    -45.YES        30001   0.192     45.YES     +000KB88
+000KB88   30001   0.192    -45.YES        30001   0.192    -45.YES     +000KB89
+000KB89   30001   0.192     45.YES
$
$Spar_32
PCOMP      12032   -3.07      3.                                        +0000B64
+0000B64   30001   0.192     45.YES        30001   0.192    -45.YES     +0000B65
+0000B65   30001   0.192    -45.YES        30001   0.192     45.YES     +0000B66
+0000B66   30001   0.192    -45.YES        30001   0.192     45.YES     +0000B67
+0000B67   30001   0.192      0.YES        30001   0.192     45.YES     +0000B68
+0000B68   30001   0.192    -45.YES        30001   0.192     45.YES     +0000B69
+0000B69   30001   0.192    -45.YES        30001   0.192     90.YES     +0000B6A
+0000B6A   30001   0.192    -45.YES        30001   0.192     45.YES     +0000B6B
+0000B6B   30001   0.192      0.YES        30001   0.192     90.YES     +0000B6C
+0000B6C   30001   0.192     90.YES        30001   0.192      0.YES     +0000B6D
+0000B6D   30001   0.192     45.YES        30001   0.192    -45.YES     +0000B6E
+0000B6E   30001   0.192     90.YES        30001   0.192    -45.YES     +0000B6F
+0000B6F   30001   0.192     45.YES        30001   0.192    -45.YES     +0000B70
+0000B70   30001   0.192     45.YES        30001   0.192      0.YES     +0000B71
+0000B71   30001   0.192     45.YES        30001   0.192    -45.YES     +0000B72
+0000B72   30001   0.192     45.YES        30001   0.192    -45.YES     +0000B73
+0000B73   30001   0.192    -45.YES        30001   0.192     45.YES     +0000B74
$
$Spar_36
PCOMP      12036  -3.455      3.                                        +000UB01
+000UB01   30001   0.192     45.YES        30001   0.192    -45.YES     +000UB02
+000UB02   30001   0.192    -45.YES        30001   0.192     45.YES     +000UB03
+000UB03   30001   0.192    -45.YES        30001   0.192     45.YES     +000UB04
+000UB04   30001   0.192      0.YES        30001   0.192     45.YES     +000UB05
+000UB05   30001   0.192    -45.YES        30001   0.192     45.YES     +000UB06
+000UB06   30001   0.192    -45.YES        30001   0.192     90.YES     +000UB07
+000UB07   30001   0.192    -45.YES        30001   0.192     45.YES     +000UB08
+000UB08   30001   0.192    -45.YES        30001   0.192     45.YES     +000UB09
+000UB09   30001   0.192      0.YES        30001   0.192     90.YES     +000UB10
+000UB10   30001   0.192     90.YES        30001   0.192      0.YES     +000UB11
+000UB11   30001   0.192     45.YES        30001   0.192    -45.YES     +000UB12
+000UB12   30001   0.192     45.YES        30001   0.192    -45.YES     +000UB13
+000UB13   30001   0.192     90.YES        30001   0.192    -45.YES     +000UB14
+000UB14   30001   0.192     45.YES        30001   0.192    -45.YES     +000UB15
+000UB15   30001   0.192     45.YES        30001   0.192      0.YES     +000UB16
+000UB16   30001   0.192     45.YES        30001   0.192    -45.YES     +000UB17
+000UB17   30001   0.192     45.YES        30001   0.192    -45.YES     +000UB18
+000UB18   30001   0.192    -45.YES        30001   0.192     45.YES
$
$
$ ASIGNATION OF MATERIALS AND PROPERTIES: PSHELL & PROD cards
$ **************************************
$
$-------$-------$-------$-------$-------$-------$-------$-------$-------$-------
$                                                          
$Upper_Stringers_LHS
PROD       13001   20001  150.00
$
$Lower_Stringers_LHS
PROD       13002   20003  150.00
$
$Spar_Caps_LHS                                                                  
PROD       13011   20004  150.00
$
$Front_Spar_Stiffeners_LHS                                                      
PROD       13003   20006  150.00
$
$Rear_Spar_Stiffeners_LHS                                                       
PROD       13013   20007  150.00
$
$RST_LHS                                                                        
PROD       13006   20005  150.00
$
$Lateral_Bar_LHS                                                                
PROD       13004   20002    1.+3
$
$Rear_Support_LHS                                                               
PROD       13005   20002    2.+2
$
$-------$-------$-------$-------$-------$-------$-------$-------$-------$-------
$Upper_Stringers_RHS                                                            
PROD       23001   20001  150.00
$
$Lower_Stringers_RHS                                                            
PROD       23002   20003  150.00
$
$Spar_Caps_RHS                                                                  
PROD       23011   20004  150.00
$
$Front_Spar_Stiffeners_RHS                                                      
PROD       23003   20006  150.00
$
$Rear_Spar_Stiffeners_RHS                                                       
PROD       23013   20007  150.00
$
$RST_RHS                                                                        
PROD       23006   20005  150.00 
$
$Lateral_Bar_RHS                                                                
PROD       23004   20002    1.+3
$
$Rear_Support_RHS                                                               
PROD       23005   20002    2.+2
$
$-------$-------$-------$-------$-------$-------$-------$-------$-------$-------
$Centre Joint                                                                   
PROD       33001   20008  150.00
$
$Screw_Jack_Fitting                                                             
PROD       33002   20002    4.+2
$
$Rear_Support_LHS
PSHELL     10005   10001     56.   10001      1.     
$                    
$            
$$$$$$$$$$$$$$$$$$$$$$$$$$$$$$$$$$$$$$$$$$$$$$$$$$$$$$$$$$$$$$$$$$$$$$$$$$$$$$$$
$$$$$$$$$$$$$$$$$$$$$$$$$$$$$$$$$$$$$$$$$$$$$$$$$$$$$$$$$$$$$$$$$$$$$$$$$$$$$$$$
$ FŽlix Ram—n L—pez Mart’nez 16/01/2020